<!-- number of vehicles:20 -->
<!-- generated on 2020-01-15 16:03:29.004195 by "vehicleFlow.py cars.rou.xml -m 5 -r 0.7 -s 13.89 -t 20" -->
<routes>
  <route id="1" edges="w_to_e"/>
  <route id="2" edges="e_to_w"/>

  <vType accel="4" decel="7.5" emergencyDecel="10" minGap="5.0" speedDev="0.5" speedFactor="1.5" id="Car0" maxSpeed="13.89" />

      <vehicle id="veh1" type="Car0" depart="4.13769369709" route="1">
    </vehicle>
      <vehicle id="veh2" type="Car0" depart="5.71730675752" route="2">
    </vehicle>
</routes>
