<?xml version="1.0" encoding="UTF-8"?>

<!-- generated on gio 26 mar 2020 13:41:14 CET by Eclipse SUMO netedit Version 1.5.0
<configuration xmlns:xsi="http://www.w3.org/2001/XMLSchema-instance" xsi:noNamespaceSchemaLocation="http://sumo.dlr.de/xsd/netconvertConfiguration.xsd">

    <input>
        <sumo-net-file value="/home/marco/v2v-ns-3-sandbox/src/automotive/examples/sumo-files/map.net.xml"/>
    </input>

    <output>
        <output-file value="/home/marco/v2v-ns-3-sandbox/src/automotive/examples/sumo-files/map.net.xml"/>
    </output>

    <processing>
        <geometry.min-radius.fix.railways value="false"/>
        <geometry.max-grade.fix value="false"/>
        <offset.disable-normalization value="true"/>
        <lefthand value="false"/>
    </processing>

    <junctions>
        <no-turnarounds value="true"/>
        <junctions.corner-detail value="5"/>
        <junctions.limit-turn-speed value="5.5"/>
        <rectangular-lane-cut value="false"/>
    </junctions>

    <pedestrian>
        <walkingareas value="false"/>
    </pedestrian>

    <report>
        <aggregate-warnings value="5"/>
    </report>

</configuration>
-->

<net version="1.3" junctionCornerDetail="5" limitTurnSpeed="5.50" xmlns:xsi="http://www.w3.org/2001/XMLSchema-instance" xsi:noNamespaceSchemaLocation="http://sumo.dlr.de/xsd/net_file.xsd">

    <location netOffset="0.00,0.00" convBoundary="-500.00,-5.45,500.00,-5.45" origBoundary="-10000000000.00,-10000000000.00,10000000000.00,10000000000.00" projParameter="!"/>

    <edge id="e_to_w" from="e" to="w" priority="-1" length="1000.00">
        <lane id="e_to_w_0" index="0" speed="30.00" length="1000.00" width="6.00" shape="500.00,3.55 -500.00,3.55"/>
        <lane id="e_to_w_1" index="1" speed="30.00" length="1000.00" width="6.00" shape="500.00,-2.45 -500.00,-2.45"/>
    </edge>
    <edge id="w_to_e" from="w" to="e" priority="-1" length="1000.00">
        <lane id="w_to_e_0" index="0" speed="30.00" length="1000.00" width="6.00" shape="-500.00,-14.45 500.00,-14.45"/>
        <lane id="w_to_e_1" index="1" speed="30.00" length="1000.00" width="6.00" shape="-500.00,-8.45 500.00,-8.45"/>
    </edge>

    <junction id="e" type="dead_end" x="500.00" y="-5.45" incLanes="w_to_e_0 w_to_e_1" intLanes="" shape="500.00,-5.45 500.00,-17.45 500.00,-5.45"/>
    <junction id="w" type="dead_end" x="-500.00" y="-5.45" incLanes="e_to_w_0 e_to_w_1" intLanes="" shape="-500.00,-5.45 -500.00,6.55 -500.00,-5.45"/>

</net>
