<?xml version="1.0" encoding="UTF-8"?>

<!-- generated on mar 31 mar 2020 12:13:02 CEST by Eclipse SUMO netedit Version 1.5.0
<configuration xmlns:xsi="http://www.w3.org/2001/XMLSchema-instance" xsi:noNamespaceSchemaLocation="http://sumo.dlr.de/xsd/netconvertConfiguration.xsd">

    <input>
        <sumo-net-file value="/home/marco/v2v-ns-3-sandbox/src/automotive/examples/sumo-files/map.net.xml"/>
    </input>

    <output>
        <output-file value="/home/marco/v2v-ns-3-sandbox/src/automotive/examples/sumo-files/map.net.xml"/>
    </output>

    <processing>
        <geometry.min-radius.fix.railways value="false"/>
        <geometry.max-grade.fix value="false"/>
        <offset.disable-normalization value="true"/>
        <lefthand value="false"/>
    </processing>

    <junctions>
        <no-internal-links value="true"/>
        <no-turnarounds value="true"/>
        <junctions.corner-detail value="5"/>
        <junctions.limit-turn-speed value="5.5"/>
        <rectangular-lane-cut value="false"/>
    </junctions>

    <pedestrian>
        <walkingareas value="false"/>
    </pedestrian>

    <report>
        <aggregate-warnings value="5"/>
    </report>

</configuration>
-->

<net version="1.3" junctionCornerDetail="5" limitTurnSpeed="5.50" xmlns:xsi="http://www.w3.org/2001/XMLSchema-instance" xsi:noNamespaceSchemaLocation="http://sumo.dlr.de/xsd/net_file.xsd">

    <location netOffset="0.00,0.00" convBoundary="-335.00,-100.00,335.00,-5.45" origBoundary="-10000000000.00,-10000000000.00,10000000000.00,10000000000.00" projParameter="!"/>

    <edge id="ne_to_nw" from="ne" to="nw" priority="-1" length="600.00">
        <lane id="ne_to_nw_0" index="0" speed="30.00" length="600.00" width="3.00" shape="298.22,-0.95 -298.22,-0.95"/>
        <lane id="ne_to_nw_1" index="1" speed="30.00" length="600.00" width="3.00" shape="298.22,-3.95 -298.22,-3.95"/>
    </edge>
    <edge id="ne_to_se" from="ne" to="se" priority="-1" shape="300.00,-5.45 330.00,-25.00 335.00,-50.00 330.00,-80.00 300.00,-100.00">
        <lane id="ne_to_se_0" index="0" speed="30.00" length="127.77" width="3.00" shape="299.04,-10.19 325.96,-27.74 330.43,-50.07 325.88,-77.34 299.02,-95.25"/>
        <lane id="ne_to_se_1" index="1" speed="30.00" length="127.77" width="3.00" shape="300.67,-7.68 328.65,-25.91 333.48,-50.02 328.63,-79.11 300.68,-97.74"/>
    </edge>
    <edge id="nw_to_ne" from="nw" to="ne" priority="-1" length="600.00">
        <lane id="nw_to_ne_0" index="0" speed="30.00" length="600.00" width="3.00" shape="-298.22,-9.95 298.22,-9.95"/>
        <lane id="nw_to_ne_1" index="1" speed="30.00" length="600.00" width="3.00" shape="-298.22,-6.95 298.22,-6.95"/>
    </edge>
    <edge id="nw_to_sw" from="nw" to="sw" priority="-1" shape="-300.00,-5.45 -330.00,-25.00 -335.00,-50.00 -330.00,-80.00 -300.00,-100.00">
        <lane id="nw_to_sw_0" index="0" speed="30.00" length="127.77" width="3.00" shape="-303.95,-2.65 -334.04,-22.26 -339.57,-49.93 -334.12,-82.66 -304.01,-102.74"/>
        <lane id="nw_to_sw_1" index="1" speed="30.00" length="127.77" width="3.00" shape="-302.31,-5.17 -331.35,-24.09 -336.52,-49.98 -331.37,-80.89 -302.34,-100.24"/>
    </edge>
    <edge id="se_to_ne" from="se" to="ne" priority="-1" shape="300.00,-100.00 330.00,-80.00 335.00,-50.00 330.00,-25.00 300.00,-5.45">
        <lane id="se_to_ne_0" index="0" speed="30.00" length="127.77" width="3.00" shape="304.01,-102.74 334.12,-82.66 339.57,-49.93 334.04,-22.26 303.95,-2.65"/>
        <lane id="se_to_ne_1" index="1" speed="30.00" length="127.77" width="3.00" shape="302.34,-100.24 331.37,-80.89 336.52,-49.98 331.35,-24.09 302.31,-5.17"/>
    </edge>
    <edge id="se_to_sw" from="se" to="sw" priority="-1">
        <lane id="se_to_sw_0" index="0" speed="30.00" length="600.00" width="3.00" shape="298.18,-95.50 -298.18,-95.50"/>
        <lane id="se_to_sw_1" index="1" speed="30.00" length="600.00" width="3.00" shape="298.18,-98.50 -298.18,-98.50"/>
    </edge>
    <edge id="sw_to_nw" from="sw" to="nw" priority="-1" shape="-300.00,-100.00 -330.00,-80.00 -335.00,-50.00 -330.00,-25.00 -300.00,-5.45">
        <lane id="sw_to_nw_0" index="0" speed="30.00" length="127.77" width="3.00" shape="-299.02,-95.25 -325.88,-77.34 -330.43,-50.07 -325.96,-27.74 -299.04,-10.19"/>
        <lane id="sw_to_nw_1" index="1" speed="30.00" length="127.77" width="3.00" shape="-300.68,-97.74 -328.63,-79.11 -333.48,-50.02 -328.65,-25.91 -300.67,-7.68"/>
    </edge>
    <edge id="sw_to_se" from="sw" to="se" priority="-1">
        <lane id="sw_to_se_0" index="0" speed="30.00" length="600.00" width="3.00" shape="-298.18,-104.50 298.18,-104.50"/>
        <lane id="sw_to_se_1" index="1" speed="30.00" length="600.00" width="3.00" shape="-298.18,-101.50 298.18,-101.50"/>
    </edge>

    <junction id="ne" type="priority" x="300.00" y="-5.45" incLanes="se_to_ne_0 se_to_ne_1 nw_to_ne_0 nw_to_ne_1" intLanes="" shape="304.77,-1.40 298.22,-11.45 298.22,0.55 300.80,0.46 301.70,0.28 302.56,-0.06 303.53,-0.60">
        <request index="0" response="0000" foes="0000"/>
        <request index="1" response="0000" foes="0000"/>
        <request index="2" response="0000" foes="0000"/>
        <request index="3" response="0000" foes="0000"/>
    </junction>
    <junction id="nw" type="priority" x="-300.00" y="-5.45" incLanes="ne_to_nw_0 ne_to_nw_1 sw_to_nw_0 sw_to_nw_1" intLanes="" shape="-298.22,0.55 -298.22,-11.45 -304.77,-1.40 -302.56,-0.06 -301.70,0.28 -300.80,0.46 -299.69,0.54">
        <request index="0" response="0000" foes="0000"/>
        <request index="1" response="0000" foes="0000"/>
        <request index="2" response="0000" foes="0000"/>
        <request index="3" response="0000" foes="0000"/>
    </junction>
    <junction id="se" type="priority" x="300.00" y="-100.00" incLanes="ne_to_se_0 ne_to_se_1 sw_to_se_0 sw_to_se_1" intLanes="" shape="298.18,-94.00 304.84,-103.98 302.60,-105.36 301.73,-105.72 300.81,-105.91 299.68,-105.98 298.18,-106.00">
        <request index="0" response="0000" foes="0000"/>
        <request index="1" response="0000" foes="0000"/>
        <request index="2" response="0000" foes="0000"/>
        <request index="3" response="0000" foes="0000"/>
    </junction>
    <junction id="sw" type="priority" x="-300.00" y="-100.00" incLanes="se_to_sw_0 se_to_sw_1 nw_to_sw_0 nw_to_sw_1" intLanes="" shape="-298.18,-94.00 -298.18,-106.00 -300.81,-105.91 -301.73,-105.72 -302.60,-105.36 -303.58,-104.80 -304.84,-103.98">
        <request index="0" response="0000" foes="0000"/>
        <request index="1" response="0000" foes="0000"/>
        <request index="2" response="0000" foes="0000"/>
        <request index="3" response="0000" foes="0000"/>
    </junction>

    <connection from="ne_to_nw" to="nw_to_sw" fromLane="0" toLane="0" dir="s" state="M"/>
    <connection from="ne_to_nw" to="nw_to_sw" fromLane="1" toLane="1" dir="s" state="M"/>
    <connection from="ne_to_se" to="se_to_sw" fromLane="0" toLane="0" dir="s" state="M"/>
    <connection from="ne_to_se" to="se_to_sw" fromLane="1" toLane="1" dir="s" state="M"/>
    <connection from="nw_to_ne" to="ne_to_se" fromLane="0" toLane="0" dir="s" state="M"/>
    <connection from="nw_to_ne" to="ne_to_se" fromLane="1" toLane="1" dir="s" state="M"/>
    <connection from="nw_to_sw" to="sw_to_se" fromLane="0" toLane="0" dir="s" state="M"/>
    <connection from="nw_to_sw" to="sw_to_se" fromLane="1" toLane="1" dir="s" state="M"/>
    <connection from="se_to_ne" to="ne_to_nw" fromLane="0" toLane="0" dir="s" state="M"/>
    <connection from="se_to_ne" to="ne_to_nw" fromLane="1" toLane="1" dir="s" state="M"/>
    <connection from="se_to_sw" to="sw_to_nw" fromLane="0" toLane="0" dir="s" state="M"/>
    <connection from="se_to_sw" to="sw_to_nw" fromLane="1" toLane="1" dir="s" state="M"/>
    <connection from="sw_to_nw" to="nw_to_ne" fromLane="0" toLane="0" dir="s" state="M"/>
    <connection from="sw_to_nw" to="nw_to_ne" fromLane="1" toLane="1" dir="s" state="M"/>
    <connection from="sw_to_se" to="se_to_ne" fromLane="0" toLane="0" dir="s" state="M"/>
    <connection from="sw_to_se" to="se_to_ne" fromLane="1" toLane="1" dir="s" state="M"/>

</net>
